logv3lpf/test-cases/IEEE8500/UnbalancedLoads.DSS
New	Load.138236B0a	phases=1	Bus1=SX2673305B.1	kV=.120	Status=variable	Model=1	Conn=wye	kW=	0.696180467	pf	=	0.97
New	Load.138236B0b	phases=1	Bus1=SX2673305B.2	kV=.120	Status=variable	Model=1	Conn=wye	kW=	3.193819533	pf	=	0.97
New	Load.138237B0a	phases=1	Bus1=SX3048196B.1	kV=.120	Status=variable	Model=1	Conn=wye	kW=	2.303392076	pf	=	0.97
New	Load.138237B0b	phases=1	Bus1=SX3048196B.2	kV=.120	Status=variable	Model=1	Conn=wye	kW=	3.536607924	pf	=	0.97
New	Load.138258C0a	phases=1	Bus1=SX2991911C.1	kV=.120	Status=variable	Model=1	Conn=wye	kW=	0.93202706	pf	=	0.97
New	Load.138258C0b	phases=1	Bus1=SX2991911C.2	kV=.120	Status=variable	Model=1	Conn=wye	kW=	5.16797294	pf	=	0.97
New	Load.138259C0a	phases=1	Bus1=SX2973158C.1	kV=.120	Status=variable	Model=1	Conn=wye	kW=	0.616065526	pf	=	0.97
New	Load.138259C0b	phases=1	Bus1=SX2973158C.2	kV=.120	Status=variable	Model=1	Conn=wye	kW=	5.483934474	pf	=	0.97
New	Load.138260A0a	phases=1	Bus1=SX3048208A.1	kV=.120	Status=variable	Model=1	Conn=wye	kW=	1.457160537	pf	=	0.97
New	Load.138260A0b	phases=1	Bus1=SX3048208A.2	kV=.120	Status=variable	Model=1	Conn=wye	kW=	3.862839463	pf	=	0.97
New	Load.138262A0a	phases=1	Bus1=SX3029502A.1	kV=.120	Status=variable	Model=1	Conn=wye	kW=	11.35585409	pf	=	0.97
New	Load.138262A0b	phases=1	Bus1=SX3029502A.2	kV=.120	Status=variable	Model=1	Conn=wye	kW=	6.384145906	pf	=	0.97
New	Load.138264B0a	phases=1	Bus1=SX3104125B.1	kV=.120	Status=variable	Model=1	Conn=wye	kW=	0.721058705	pf	=	0.97
New	Load.138264B0b	phases=1	Bus1=SX3104125B.2	kV=.120	Status=variable	Model=1	Conn=wye	kW=	9.008941295	pf	=	0.97
New	Load.138265A0a	phases=1	Bus1=SX3160107A.1	kV=.120	Status=variable	Model=1	Conn=wye	kW=	5.425834498	pf	=	0.97
New	Load.138265A0b	phases=1	Bus1=SX3160107A.2	kV=.120	Status=variable	Model=1	Conn=wye	kW=	3.444165502	pf	=	0.97
New	Load.138294B0a	phases=1	Bus1=SX2785516B.1	kV=.120	Status=variable	Model=1	Conn=wye	kW=	0.97990541	pf	=	0.97
New	Load.138294B0b	phases=1	Bus1=SX2785516B.2	kV=.120	Status=variable	Model=1	Conn=wye	kW=	4.86009459	pf	=	0.97
New	Load.138313A0a	phases=1	Bus1=SX3141400A.1	kV=.120	Status=variable	Model=1	Conn=wye	kW=	3.302855724	pf	=	0.97
New	Load.138313A0b	phases=1	Bus1=SX3141400A.2	kV=.120	Status=variable	Model=1	Conn=wye	kW=	0.247144276	pf	=	0.97
New	Load.138342C0a	phases=1	Bus1=SX2897775C.1	kV=.120	Status=variable	Model=1	Conn=wye	kW=	5.467094777	pf	=	0.97
New	Load.138342C0b	phases=1	Bus1=SX2897775C.2	kV=.120	Status=variable	Model=1	Conn=wye	kW=	4.702905223	pf	=	0.97
New	Load.138343C0a	phases=1	Bus1=SX3010565C.1	kV=.120	Status=variable	Model=1	Conn=wye	kW=	1.907318585	pf	=	0.97
New	Load.138343C0b	phases=1	Bus1=SX3010565C.2	kV=.120	Status=variable	Model=1	Conn=wye	kW=	2.162681415	pf	=	0.97
New	Load.138346C0a	phases=1	Bus1=SX2916609C.1	kV=.120	Status=variable	Model=1	Conn=wye	kW=	0.640997142	pf	=	0.97
New	Load.138346C0b	phases=1	Bus1=SX2916609C.2	kV=.120	Status=variable	Model=1	Conn=wye	kW=	5.459002858	pf	=	0.97
New	Load.138371C0a	phases=1	Bus1=SX2879073C.1	kV=.120	Status=variable	Model=1	Conn=wye	kW=	5.150495613	pf	=	0.97
New	Load.138371C0b	phases=1	Bus1=SX2879073C.2	kV=.120	Status=variable	Model=1	Conn=wye	kW=	0.949504387	pf	=	0.97
New	Load.138372C0a	phases=1	Bus1=SX3104126C.1	kV=.120	Status=variable	Model=1	Conn=wye	kW=	3.533556065	pf	=	0.97
New	Load.138372C0b	phases=1	Bus1=SX3104126C.2	kV=.120	Status=variable	Model=1	Conn=wye	kW=	0.536443935	pf	=	0.97
New	Load.138373C0a	phases=1	Bus1=SX3029503C.1	kV=.120	Status=variable	Model=1	Conn=wye	kW=	3.106271839	pf	=	0.97
New	Load.138373C0b	phases=1	Bus1=SX3029503C.2	kV=.120	Status=variable	Model=1	Conn=wye	kW=	2.993728161	pf	=	0.97
New	Load.138374C0a	phases=1	Bus1=SX2691950C.1	kV=.120	Status=variable	Model=1	Conn=wye	kW=	1.381906201	pf	=	0.97
New	Load.138374C0b	phases=1	Bus1=SX2691950C.2	kV=.120	Status=variable	Model=1	Conn=wye	kW=	8.788093799	pf	=	0.97
New	Load.138379C0a	phases=1	Bus1=SX2691951C.1	kV=.120	Status=variable	Model=1	Conn=wye	kW=	5.534335209	pf	=	0.97
New	Load.138379C0b	phases=1	Bus1=SX2691951C.2	kV=.120	Status=variable	Model=1	Conn=wye	kW=	4.635664791	pf	=	0.97
New	Load.138380C0a	phases=1	Bus1=SX2879076C.1	kV=.120	Status=variable	Model=1	Conn=wye	kW=	2.612817814	pf	=	0.97
New	Load.138380C0b	phases=1	Bus1=SX2879076C.2	kV=.120	Status=variable	Model=1	Conn=wye	kW=	1.457182186	pf	=	0.97
New	Load.138404C0a	phases=1	Bus1=SX2841630C.1	kV=.120	Status=variable	Model=1	Conn=wye	kW=	8.319351761	pf	=	0.97
New	Load.138404C0b	phases=1	Bus1=SX2841630C.2	kV=.120	Status=variable	Model=1	Conn=wye	kW=	1.850648239	pf	=	0.97
New	Load.138405C0a	phases=1	Bus1=SX2841629C.1	kV=.120	Status=variable	Model=1	Conn=wye	kW=	8.684288975	pf	=	0.97
New	Load.138405C0b	phases=1	Bus1=SX2841629C.2	kV=.120	Status=variable	Model=1	Conn=wye	kW=	6.575711025	pf	=	0.97
New	Load.138412C0a	phases=1	Bus1=SX2785523C.1	kV=.120	Status=variable	Model=1	Conn=wye	kW=	2.535780656	pf	=	0.97
New	Load.138412C0b	phases=1	Bus1=SX2785523C.2	kV=.120	Status=variable	Model=1	Conn=wye	kW=	3.564219344	pf	=	0.97
New	Load.138413C0a	phases=1	Bus1=SX3216347C.1	kV=.120	Status=variable	Model=1	Conn=wye	kW=	4.660304004	pf	=	0.97
New	Load.138413C0b	phases=1	Bus1=SX3216347C.2	kV=.120	Status=variable	Model=1	Conn=wye	kW=	1.439695996	pf	=	0.97
New	Load.138416C0a	phases=1	Bus1=SX3141388C.1	kV=.120	Status=variable	Model=1	Conn=wye	kW=	2.003534989	pf	=	0.97
New	Load.138416C0b	phases=1	Bus1=SX3141388C.2	kV=.120	Status=variable	Model=1	Conn=wye	kW=	2.066465011	pf	=	0.97
New	Load.138464C0a	phases=1	Bus1=SX3066801C.1	kV=.120	Status=variable	Model=1	Conn=wye	kW=	2.749357193	pf	=	0.97
New	Load.138464C0b	phases=1	Bus1=SX3066801C.2	kV=.120	Status=variable	Model=1	Conn=wye	kW=	1.320642807	pf	=	0.97
New	Load.138465C0a	phases=1	Bus1=SX2879055C.1	kV=.120	Status=variable	Model=1	Conn=wye	kW=	3.902977618	pf	=	0.97
New	Load.138465C0b	phases=1	Bus1=SX2879055C.2	kV=.120	Status=variable	Model=1	Conn=wye	kW=	0.167022382	pf	=	0.97
New	Load.138466C0a	phases=1	Bus1=SX2973144C.1	kV=.120	Status=variable	Model=1	Conn=wye	kW=	8.100967811	pf	=	0.97
New	Load.138466C0b	phases=1	Bus1=SX2973144C.2	kV=.120	Status=variable	Model=1	Conn=wye	kW=	2.069032189	pf	=	0.97
New	Load.138469C0a	phases=1	Bus1=SX2785518C.1	kV=.120	Status=variable	Model=1	Conn=wye	kW=	4.010721087	pf	=	0.97
New	Load.138469C0b	phases=1	Bus1=SX2785518C.2	kV=.120	Status=variable	Model=1	Conn=wye	kW=	2.089278913	pf	=	0.97
New	Load.138470C0a	phases=1	Bus1=SX2766717C.1	kV=.120	Status=variable	Model=1	Conn=wye	kW=	2.608954311	pf	=	0.97
New	Load.138470C0b	phases=1	Bus1=SX2766717C.2	kV=.120	Status=variable	Model=1	Conn=wye	kW=	1.461045689	pf	=	0.97
New	Load.138472C0a	phases=1	Bus1=SX2673309C.1	kV=.120	Status=variable	Model=1	Conn=wye	kW=	9.447001537	pf	=	0.97
New	Load.138472C0b	phases=1	Bus1=SX2673309C.2	kV=.120	Status=variable	Model=1	Conn=wye	kW=	0.722998463	pf	=	0.97
New	Load.138560A0a	phases=1	Bus1=SX3104113A.1	kV=.120	Status=variable	Model=1	Conn=wye	kW=	4.766309294	pf	=	0.97
New	Load.138560A0b	phases=1	Bus1=SX3104113A.2	kV=.120	Status=variable	Model=1	Conn=wye	kW=	4.103690706	pf	=	0.97
New	Load.138561A0a	phases=1	Bus1=SX3104121A.1	kV=.120	Status=variable	Model=1	Conn=wye	kW=	6.503501568	pf	=	0.97
New	Load.138561A0b	phases=1	Bus1=SX3104121A.2	kV=.120	Status=variable	Model=1	Conn=wye	kW=	2.366498432	pf	=	0.97
New	Load.138562A0a	phases=1	Bus1=SX2673310A.1	kV=.120	Status=variable	Model=1	Conn=wye	kW=	6.826471255	pf	=	0.97
New	Load.138562A0b	phases=1	Bus1=SX2673310A.2	kV=.120	Status=variable	Model=1	Conn=wye	kW=	2.043528745	pf	=	0.97
New	Load.138563A0a	phases=1	Bus1=SX2916627A.1	kV=.120	Status=variable	Model=1	Conn=wye	kW=	6.439547666	pf	=	0.97
New	Load.138563A0b	phases=1	Bus1=SX2916627A.2	kV=.120	Status=variable	Model=1	Conn=wye	kW=	2.430452334	pf	=	0.97
New	Load.138564A0a	phases=1	Bus1=SX2804283A.1	kV=.120	Status=variable	Model=1	Conn=wye	kW=	7.517487013	pf	=	0.97
New	Load.138564A0b	phases=1	Bus1=SX2804283A.2	kV=.120	Status=variable	Model=1	Conn=wye	kW=	1.352512987	pf	=	0.97
New	Load.138565A0a	phases=1	Bus1=SX3104122A.1	kV=.120	Status=variable	Model=1	Conn=wye	kW=	8.412788236	pf	=	0.97
New	Load.138565A0b	phases=1	Bus1=SX3104122A.2	kV=.120	Status=variable	Model=1	Conn=wye	kW=	0.457211764	pf	=	0.97
New	Load.138566A0a	phases=1	Bus1=SX2785519A.1	kV=.120	Status=variable	Model=1	Conn=wye	kW=	8.307651778	pf	=	0.97
New	Load.138566A0b	phases=1	Bus1=SX2785519A.2	kV=.120	Status=variable	Model=1	Conn=wye	kW=	0.562348222	pf	=	0.97
New	Load.138567A0a	phases=1	Bus1=SX2748129A.1	kV=.120	Status=variable	Model=1	Conn=wye	kW=	0.489392793	pf	=	0.97
New	Load.138567A0b	phases=1	Bus1=SX2748129A.2	kV=.120	Status=variable	Model=1	Conn=wye	kW=	12.81060721	pf	=	0.97
New	Load.138569A0a	phases=1	Bus1=SX2973151A.1	kV=.120	Status=variable	Model=1	Conn=wye	kW=	3.882545121	pf	=	0.97
New	Load.138569A0b	phases=1	Bus1=SX2973151A.2	kV=.120	Status=variable	Model=1	Conn=wye	kW=	1.437454879	pf	=	0.97
New	Load.138570A0a	phases=1	Bus1=SX2748146A.1	kV=.120	Status=variable	Model=1	Conn=wye	kW=	0.571963825	pf	=	0.97
New	Load.138570A0b	phases=1	Bus1=SX2748146A.2	kV=.120	Status=variable	Model=1	Conn=wye	kW=	4.748036175	pf	=	0.97
New	Load.138571A0a	phases=1	Bus1=SX2991913A.1	kV=.120	Status=variable	Model=1	Conn=wye	kW=	1.551859567	pf	=	0.97
New	Load.138571A0b	phases=1	Bus1=SX2991913A.2	kV=.120	Status=variable	Model=1	Conn=wye	kW=	3.768140433	pf	=	0.97
New	Load.138573A0a	phases=1	Bus1=SX3235253A.1	kV=.120	Status=variable	Model=1	Conn=wye	kW=	6.427776841	pf	=	0.97
New	Load.138573A0b	phases=1	Bus1=SX3235253A.2	kV=.120	Status=variable	Model=1	Conn=wye	kW=	2.442223159	pf	=	0.97
New	Load.138574A0a	phases=1	Bus1=SX2991907A.1	kV=.120	Status=variable	Model=1	Conn=wye	kW=	5.824708669	pf	=	0.97
New	Load.138574A0b	phases=1	Bus1=SX2991907A.2	kV=.120	Status=variable	Model=1	Conn=wye	kW=	3.045291331	pf	=	0.97
New	Load.138581A0a	phases=1	Bus1=SX2879064A.1	kV=.120	Status=variable	Model=1	Conn=wye	kW=	5.37039573	pf	=	0.97
New	Load.138581A0b	phases=1	Bus1=SX2879064A.2	kV=.120	Status=variable	Model=1	Conn=wye	kW=	3.49960427	pf	=	0.97
New	Load.138585C0a	phases=1	Bus1=SX3197637C.1	kV=.120	Status=variable	Model=1	Conn=wye	kW=	0.863561273	pf	=	0.97
New	Load.138585C0b	phases=1	Bus1=SX3197637C.2	kV=.120	Status=variable	Model=1	Conn=wye	kW=	3.206438727	pf	=	0.97
New	Load.138586C0a	phases=1	Bus1=SX2860487C.1	kV=.120	Status=variable	Model=1	Conn=wye	kW=	5.918964279	pf	=	0.97
New	Load.138586C0b	phases=1	Bus1=SX2860487C.2	kV=.120	Status=variable	Model=1	Conn=wye	kW=	0.181035721	pf	=	0.97
New	Load.138641C0a	phases=1	Bus1=SX2841638C.1	kV=.120	Status=variable	Model=1	Conn=wye	kW=	0.905626184	pf	=	0.97
New	Load.138641C0b	phases=1	Bus1=SX2841638C.2	kV=.120	Status=variable	Model=1	Conn=wye	kW=	5.194373816	pf	=	0.97
New	Load.138642A0a	phases=1	Bus1=SX3235256A.1	kV=.120	Status=variable	Model=1	Conn=wye	kW=	3.69108181	pf	=	0.97
New	Load.138642A0b	phases=1	Bus1=SX3235256A.2	kV=.120	Status=variable	Model=1	Conn=wye	kW=	1.62891819	pf	=	0.97
New	Load.138644A0a	phases=1	Bus1=SX3197630A.1	kV=.120	Status=variable	Model=1	Conn=wye	kW=	4.48774402	pf	=	0.97
New	Load.138644A0b	phases=1	Bus1=SX3197630A.2	kV=.120	Status=variable	Model=1	Conn=wye	kW=	4.38225598	pf	=	0.97
New	Load.138645B0a	phases=1	Bus1=SX3104120B.1	kV=.120	Status=variable	Model=1	Conn=wye	kW=	3.869005709	pf	=	0.97
New	Load.138645B0b	phases=1	Bus1=SX3104120B.2	kV=.120	Status=variable	Model=1	Conn=wye	kW=	1.970994291	pf	=	0.97
New	Load.138646A0a	phases=1	Bus1=SX2804251A.1	kV=.120	Status=variable	Model=1	Conn=wye	kW=	2.135209379	pf	=	0.97
New	Load.138646A0b	phases=1	Bus1=SX2804251A.2	kV=.120	Status=variable	Model=1	Conn=wye	kW=	1.414790621	pf	=	0.97
New	Load.138647C0a	phases=1	Bus1=SX3254210C.1	kV=.120	Status=variable	Model=1	Conn=wye	kW=	6.076679444	pf	=	0.97
New	Load.138647C0b	phases=1	Bus1=SX3254210C.2	kV=.120	Status=variable	Model=1	Conn=wye	kW=	2.33E-02	pf	=	0.97
New	Load.138649A0a	phases=1	Bus1=SX3048206A.1	kV=.120	Status=variable	Model=1	Conn=wye	kW=	7.670081616	pf	=	0.97
New	Load.138649A0b	phases=1	Bus1=SX3048206A.2	kV=.120	Status=variable	Model=1	Conn=wye	kW=	1.199918384	pf	=	0.97
New	Load.138650C0a	phases=1	Bus1=SX2710510C.1	kV=.120	Status=variable	Model=1	Conn=wye	kW=	0.156969415	pf	=	0.97
New	Load.138650C0b	phases=1	Bus1=SX2710510C.2	kV=.120	Status=variable	Model=1	Conn=wye	kW=	3.913030585	pf	=	0.97
New	Load.138651C0a	phases=1	Bus1=SX3197628C.1	kV=.120	Status=variable	Model=1	Conn=wye	kW=	3.723138934	pf	=	0.97
New	Load.138651C0b	phases=1	Bus1=SX3197628C.2	kV=.120	Status=variable	Model=1	Conn=wye	kW=	6.446861066	pf	=	0.97
New	Load.138652C0a	phases=1	Bus1=SX2766718C.1	kV=.120	Status=variable	Model=1	Conn=wye	kW=	4.178819475	pf	=	0.97
New	Load.138652C0b	phases=1	Bus1=SX2766718C.2	kV=.120	Status=variable	Model=1	Conn=wye	kW=	11.08118052	pf	=	0.97
New	Load.138655A0a	phases=1	Bus1=SX3010556A.1	kV=.120	Status=variable	Model=1	Conn=wye	kW=	3.017125413	pf	=	0.97
New	Load.138655A0b	phases=1	Bus1=SX3010556A.2	kV=.120	Status=variable	Model=1	Conn=wye	kW=	2.302874587	pf	=	0.97
New	Load.138679A0a	phases=1	Bus1=SX2710520A.1	kV=.120	Status=variable	Model=1	Conn=wye	kW=	3.059770799	pf	=	0.97
New	Load.138679A0b	phases=1	Bus1=SX2710520A.2	kV=.120	Status=variable	Model=1	Conn=wye	kW=	2.260229201	pf	=	0.97
New	Load.138680A0a	phases=1	Bus1=SX2710521A.1	kV=.120	Status=variable	Model=1	Conn=wye	kW=	0.664908358	pf	=	0.97
New	Load.138680A0b	phases=1	Bus1=SX2710521A.2	kV=.120	Status=variable	Model=1	Conn=wye	kW=	8.205091642	pf	=	0.97
New	Load.138684A0a	phases=1	Bus1=SX3085396A.1	kV=.120	Status=variable	Model=1	Conn=wye	kW=	3.915372832	pf	=	0.97
New	Load.138684A0b	phases=1	Bus1=SX3085396A.2	kV=.120	Status=variable	Model=1	Conn=wye	kW=	4.954627168	pf	=	0.97
New	Load.138685A0a	phases=1	Bus1=SX3122813A.1	kV=.120	Status=variable	Model=1	Conn=wye	kW=	2.297347591	pf	=	0.97
New	Load.138685A0b	phases=1	Bus1=SX3122813A.2	kV=.120	Status=variable	Model=1	Conn=wye	kW=	3.022652409	pf	=	0.97
New	Load.138716C0a	phases=1	Bus1=SX3254219C.1	kV=.120	Status=variable	Model=1	Conn=wye	kW=	1.309282898	pf	=	0.97
New	Load.138716C0b	phases=1	Bus1=SX3254219C.2	kV=.120	Status=variable	Model=1	Conn=wye	kW=	8.860717102	pf	=	0.97
New	Load.138717C0a	phases=1	Bus1=SX3254220C.1	kV=.120	Status=variable	Model=1	Conn=wye	kW=	2.248198162	pf	=	0.97
New	Load.138717C0b	phases=1	Bus1=SX3254220C.2	kV=.120	Status=variable	Model=1	Conn=wye	kW=	7.921801838	pf	=	0.97
New	Load.138718C0a	phases=1	Bus1=SX3104134C.1	kV=.120	Status=variable	Model=1	Conn=wye	kW=	8.466141701	pf	=	0.97
New	Load.138718C0b	phases=1	Bus1=SX3104134C.2	kV=.120	Status=variable	Model=1	Conn=wye	kW=	1.703858299	pf	=	0.97
New	Load.138719A0a	phases=1	Bus1=SX2860490A.1	kV=.120	Status=variable	Model=1	Conn=wye	kW=	0.183259338	pf	=	0.97
New	Load.138719A0b	phases=1	Bus1=SX2860490A.2	kV=.120	Status=variable	Model=1	Conn=wye	kW=	8.686740662	pf	=	0.97
New	Load.138720A0a	phases=1	Bus1=SX3254218A.1	kV=.120	Status=variable	Model=1	Conn=wye	kW=	2.894867014	pf	=	0.97
New	Load.138720A0b	phases=1	Bus1=SX3254218A.2	kV=.120	Status=variable	Model=1	Conn=wye	kW=	5.975132986	pf	=	0.97
New	Load.138751B0a	phases=1	Bus1=SX3066818B.1	kV=.120	Status=variable	Model=1	Conn=wye	kW=	9.592308093	pf	=	0.97
New	Load.138751B0b	phases=1	Bus1=SX3066818B.2	kV=.120	Status=variable	Model=1	Conn=wye	kW=	0.137691907	pf	=	0.97
New	Load.138752B0a	phases=1	Bus1=SX2785528B.1	kV=.120	Status=variable	Model=1	Conn=wye	kW=	4.176203785	pf	=	0.97
New	Load.138752B0b	phases=1	Bus1=SX2785528B.2	kV=.120	Status=variable	Model=1	Conn=wye	kW=	1.663796215	pf	=	0.97
New	Load.138753B0a	phases=1	Bus1=SX2748130B.1	kV=.120	Status=variable	Model=1	Conn=wye	kW=	0.892547385	pf	=	0.97
New	Load.138753B0b	phases=1	Bus1=SX2748130B.2	kV=.120	Status=variable	Model=1	Conn=wye	kW=	8.837452615	pf	=	0.97
New	Load.138754B0a	phases=1	Bus1=SX3254212B.1	kV=.120	Status=variable	Model=1	Conn=wye	kW=	3.008033673	pf	=	0.97
New	Load.138754B0b	phases=1	Bus1=SX3254212B.2	kV=.120	Status=variable	Model=1	Conn=wye	kW=	11.58196633	pf	=	0.97
New	Load.138755B0a	phases=1	Bus1=SX2785520B.1	kV=.120	Status=variable	Model=1	Conn=wye	kW=	1.234613808	pf	=	0.97
New	Load.138755B0b	phases=1	Bus1=SX2785520B.2	kV=.120	Status=variable	Model=1	Conn=wye	kW=	2.655386192	pf	=	0.97
New	Load.138769A0a	phases=1	Bus1=SX2729411A.1	kV=.120	Status=variable	Model=1	Conn=wye	kW=	0.204705215	pf	=	0.97
New	Load.138769A0b	phases=1	Bus1=SX2729411A.2	kV=.120	Status=variable	Model=1	Conn=wye	kW=	3.345294785	pf	=	0.97
New	Load.138770A0a	phases=1	Bus1=SX2897781A.1	kV=.120	Status=variable	Model=1	Conn=wye	kW=	1.074147359	pf	=	0.97
New	Load.138770A0b	phases=1	Bus1=SX2897781A.2	kV=.120	Status=variable	Model=1	Conn=wye	kW=	2.475852641	pf	=	0.97
New	Load.138771A0a	phases=1	Bus1=SX3197644A.1	kV=.120	Status=variable	Model=1	Conn=wye	kW=	0.574874139	pf	=	0.97
New	Load.138771A0b	phases=1	Bus1=SX3197644A.2	kV=.120	Status=variable	Model=1	Conn=wye	kW=	4.745125861	pf	=	0.97
New	Load.138776C0a	phases=1	Bus1=SX3010566C.1	kV=.120	Status=variable	Model=1	Conn=wye	kW=	1.576517922	pf	=	0.97
New	Load.138776C0b	phases=1	Bus1=SX3010566C.2	kV=.120	Status=variable	Model=1	Conn=wye	kW=	4.523482078	pf	=	0.97
New	Load.138796B0a	phases=1	Bus1=SX3236011B.1	kV=.120	Status=variable	Model=1	Conn=wye	kW=	3.178627529	pf	=	0.97
New	Load.138796B0b	phases=1	Bus1=SX3236011B.2	kV=.120	Status=variable	Model=1	Conn=wye	kW=	2.661372471	pf	=	0.97
New	Load.138797B0a	phases=1	Bus1=SX3198358B.1	kV=.120	Status=variable	Model=1	Conn=wye	kW=	2.382066639	pf	=	0.97
New	Load.138797B0b	phases=1	Bus1=SX3198358B.2	kV=.120	Status=variable	Model=1	Conn=wye	kW=	12.20793336	pf	=	0.97
New	Load.138798B0a	phases=1	Bus1=SX3104859B.1	kV=.120	Status=variable	Model=1	Conn=wye	kW=	4.755617476	pf	=	0.97
New	Load.138798B0b	phases=1	Bus1=SX3104859B.2	kV=.120	Status=variable	Model=1	Conn=wye	kW=	1.084382524	pf	=	0.97
New	Load.157715B0a	phases=1	Bus1=SX2936275B.1	kV=.120	Status=variable	Model=1	Conn=wye	kW=	2.040998548	pf	=	0.97
New	Load.157715B0b	phases=1	Bus1=SX2936275B.2	kV=.120	Status=variable	Model=1	Conn=wye	kW=	1.849001452	pf	=	0.97
New	Load.157716B0a	phases=1	Bus1=SX3179674B.1	kV=.120	Status=variable	Model=1	Conn=wye	kW=	8.178629847	pf	=	0.97
New	Load.157716B0b	phases=1	Bus1=SX3179674B.2	kV=.120	Status=variable	Model=1	Conn=wye	kW=	1.551370153	pf	=	0.97
New	Load.157717B0a	phases=1	Bus1=SX2748840B.1	kV=.120	Status=variable	Model=1	Conn=wye	kW=	1.39889852	pf	=	0.97
New	Load.157717B0b	phases=1	Bus1=SX2748840B.2	kV=.120	Status=variable	Model=1	Conn=wye	kW=	4.44110148	pf	=	0.97
New	Load.157718B0a	phases=1	Bus1=SX3142099B.1	kV=.120	Status=variable	Model=1	Conn=wye	kW=	9.148567926	pf	=	0.97
New	Load.157718B0b	phases=1	Bus1=SX3142099B.2	kV=.120	Status=variable	Model=1	Conn=wye	kW=	0.581432074	pf	=	0.97
New	Load.207286C0a	phases=1	Bus1=SX3011298C.1	kV=.120	Status=variable	Model=1	Conn=wye	kW=	1.35406213	pf	=	0.97
New	Load.207286C0b	phases=1	Bus1=SX3011298C.2	kV=.120	Status=variable	Model=1	Conn=wye	kW=	2.71593787	pf	=	0.97
New	Load.207287B0a	phases=1	Bus1=SX2711234B.1	kV=.120	Status=variable	Model=1	Conn=wye	kW=	1.061929095	pf	=	0.97
New	Load.207287B0b	phases=1	Bus1=SX2711234B.2	kV=.120	Status=variable	Model=1	Conn=wye	kW=	8.668070905	pf	=	0.97
New	Load.207288B0a	phases=1	Bus1=SX3198355B.1	kV=.120	Status=variable	Model=1	Conn=wye	kW=	2.356996405	pf	=	0.97
New	Load.207288B0b	phases=1	Bus1=SX3198355B.2	kV=.120	Status=variable	Model=1	Conn=wye	kW=	1.533003595	pf	=	0.97
New	Load.207290A0a	phases=1	Bus1=SX2879773A.1	kV=.120	Status=variable	Model=1	Conn=wye	kW=	5.098149396	pf	=	0.97
New	Load.207290A0b	phases=1	Bus1=SX2879773A.2	kV=.120	Status=variable	Model=1	Conn=wye	kW=	3.771850604	pf	=	0.97
New	Load.207291C0a	phases=1	Bus1=SX2786274C.1	kV=.120	Status=variable	Model=1	Conn=wye	kW=	4.86335723	pf	=	0.97
New	Load.207291C0b	phases=1	Bus1=SX2786274C.2	kV=.120	Status=variable	Model=1	Conn=wye	kW=	5.30664277	pf	=	0.97
New	Load.207292C0a	phases=1	Bus1=SX3179682C.1	kV=.120	Status=variable	Model=1	Conn=wye	kW=	4.729844999	pf	=	0.97
New	Load.207292C0b	phases=1	Bus1=SX3179682C.2	kV=.120	Status=variable	Model=1	Conn=wye	kW=	1.370155001	pf	=	0.97
New	Load.218472A0a	phases=1	Bus1=SX2936270A.1	kV=.120	Status=variable	Model=1	Conn=wye	kW=	4.868102825	pf	=	0.97
New	Load.218472A0b	phases=1	Bus1=SX2936270A.2	kV=.120	Status=variable	Model=1	Conn=wye	kW=	4.001897175	pf	=	0.97
New	Load.218473A0a	phases=1	Bus1=SX3086078A.1	kV=.120	Status=variable	Model=1	Conn=wye	kW=	1.517333621	pf	=	0.97
New	Load.218473A0b	phases=1	Bus1=SX3086078A.2	kV=.120	Status=variable	Model=1	Conn=wye	kW=	7.352666379	pf	=	0.97
New	Load.218474A0a	phases=1	Bus1=SX3217056A.1	kV=.120	Status=variable	Model=1	Conn=wye	kW=	11.78217431	pf	=	0.97
New	Load.218474A0b	phases=1	Bus1=SX3217056A.2	kV=.120	Status=variable	Model=1	Conn=wye	kW=	5.957825686	pf	=	0.97
New	Load.218475A0a	phases=1	Bus1=SX3217057A.1	kV=.120	Status=variable	Model=1	Conn=wye	kW=	1.927531445	pf	=	0.97
New	Load.218475A0b	phases=1	Bus1=SX3217057A.2	kV=.120	Status=variable	Model=1	Conn=wye	kW=	1.622468555	pf	=	0.97
New	Load.223655C0a	phases=1	Bus1=SX2936268C.1	kV=.120	Status=variable	Model=1	Conn=wye	kW=	3.170553893	pf	=	0.97
New	Load.223655C0b	phases=1	Bus1=SX2936268C.2	kV=.120	Status=variable	Model=1	Conn=wye	kW=	2.929446107	pf	=	0.97
New	Load.223658A0a	phases=1	Bus1=SX2823592A.1	kV=.120	Status=variable	Model=1	Conn=wye	kW=	1.216367544	pf	=	0.97
New	Load.223658A0b	phases=1	Bus1=SX2823592A.2	kV=.120	Status=variable	Model=1	Conn=wye	kW=	0.553632456	pf	=	0.97
New	Load.223660C0a	phases=1	Bus1=SX3160863C.1	kV=.120	Status=variable	Model=1	Conn=wye	kW=	0.480949193	pf	=	0.97
New	Load.223660C0b	phases=1	Bus1=SX3160863C.2	kV=.120	Status=variable	Model=1	Conn=wye	kW=	5.619050807	pf	=	0.97
New	Load.223661C0a	phases=1	Bus1=SX2730108C.1	kV=.120	Status=variable	Model=1	Conn=wye	kW=	4.022985649	pf	=	0.97
New	Load.223661C0b	phases=1	Bus1=SX2730108C.2	kV=.120	Status=variable	Model=1	Conn=wye	kW=	2.077014351	pf	=	0.97
New	Load.223662C0a	phases=1	Bus1=SX2786204C.1	kV=.120	Status=variable	Model=1	Conn=wye	kW=	5.163344671	pf	=	0.97
New	Load.223662C0b	phases=1	Bus1=SX2786204C.2	kV=.120	Status=variable	Model=1	Conn=wye	kW=	10.09665533	pf	=	0.97
New	Load.223663C0a	phases=1	Bus1=SX2936216C.1	kV=.120	Status=variable	Model=1	Conn=wye	kW=	3.975531706	pf	=	0.97
New	Load.223663C0b	phases=1	Bus1=SX2936216C.2	kV=.120	Status=variable	Model=1	Conn=wye	kW=	9.45E-02	pf	=	0.97
New	Load.247036C0a	phases=1	Bus1=SX3029498C.1	kV=.120	Status=variable	Model=1	Conn=wye	kW=	0.911813089	pf	=	0.97
New	Load.247036C0b	phases=1	Bus1=SX3029498C.2	kV=.120	Status=variable	Model=1	Conn=wye	kW=	3.158186911	pf	=	0.97
New	Load.247056A0a	phases=1	Bus1=SX2991912A.1	kV=.120	Status=variable	Model=1	Conn=wye	kW=	2.299261904	pf	=	0.97
New	Load.247056A0b	phases=1	Bus1=SX2991912A.2	kV=.120	Status=variable	Model=1	Conn=wye	kW=	3.020738096	pf	=	0.97
...
